<?xml version='1.0' encoding='UTF-8'?>
<nodes>
  <node id="1449169976" x="-118.29393" y="-83.890387" shape="-119.247913,-88.259588 -113.852715,-84.415374 -115.209212,-80.652407 -117.350906,-79.518808 -121.225379,-80.513020 -122.361681,-85.748721 -119.247913,-88.259588 -119.247913,-88.259588"/>
  <node id="1449170293" x="20.597143" y="64.599662" shape="20.022916,60.164545 23.800700,61.479210 21.171636,69.034745 17.393773,67.720306 16.166009,65.203857 17.455107,61.417272 20.022916,60.164545 20.022916,60.164545"/>
  <node id="1449170365" x="-141.131722" y="5.109123" shape="-142.074746,0.737544 -138.200273,1.731756 -136.675744,4.729308 -138.154283,8.446016 -140.623691,9.552309 -144.381452,8.181460 -142.074746,0.737544 -142.074746,0.737544"/>
  <node id="1449170520" x="-40.970995" y="-56.016554" shape="-41.193958,-60.483128 -37.531513,-58.874869 -36.598087,-56.953399 -37.597774,-53.080335 -39.998477,-51.651441 -43.879574,-52.619472 -45.412210,-55.491567 -44.055713,-59.254534 -41.193958,-60.483128 -41.193958,-60.483128"/>
  <node id="1449170571" x="-63.881961" y="35.839754" shape="-64.854479,31.474641 -60.973382,32.442672 -59.450827,35.235559 -60.739925,39.022144 -64.526510,37.733047 -64.621231,37.698108 -68.337939,36.219569 -66.859400,32.502861 -64.854479,31.474641 -64.854479,31.474641"/>
  <node id="1866096686" x="54.037518" y="-31.493654" shape="50.664297,-34.429873 54.537361,-33.430186 54.707944,-33.377939 58.476514,-32.037086 57.135661,-28.268517 54.611745,-27.058537 50.833961,-28.373202 49.664610,-30.556809 50.664297,-34.429873 50.664297,-34.429873"/>
  <node id="667003250" x="-10.98938" y="155.383313" shape="-11.563873,150.948230 -7.786010,152.262669 -6.517722,155.317965 -8.254107,158.921431 -15.456423,155.596678 -13.840298,151.937697 -11.563873,150.948230 -11.563873,150.948230"/>
</nodes>
