<?xml version="1.0" encoding="UTF-8"?>

<!-- generated on 28/4/2021 16:41:21 by Netedit Version 0.30.0
<?xml version="1.0" encoding="UTF-8"?>

<configuration xmlns:xsi="http://www.w3.org/2001/XMLSchema-instance" xsi:noNamespaceSchemaLocation="http://sumo.dlr.de/xsd/netconvertConfiguration.xsd">

    <input>
        <sumo-net-file value="C:\Users\fguas\Desktop\FERRAN\AAUNI\3r\2nsemestre\ROBOTICA\proj\obj\final_b_net\sumo.net.xml"/>
    </input>

    <output>
        <output-file value="C:\Users\fguas\Desktop\FERRAN\AAUNI\3r\2nsemestre\ROBOTICA\proj\obj\final_b_net\sumo.net.xml"/>
    </output>

    <processing>
        <no-turnarounds value="true"/>
        <offset.disable-normalization value="true"/>
        <lefthand value="false"/>
        <junctions.corner-detail value="0"/>
        <rectangular-lane-cut value="false"/>
    </processing>

</configuration>
-->

<net version="0.27" xmlns:xsi="http://www.w3.org/2001/XMLSchema-instance" xsi:noNamespaceSchemaLocation="http://sumo.dlr.de/xsd/net_file.xsd">

    <location netOffset="167.31,180.82" convBoundary="0.00,0.00,311.87,370.60" origBoundary="-167.31,-180.82,144.56,189.79" projParameter="!"/>

    <edge id=":1449169976_0" function="internal">
        <lane id=":1449169976_0_0" index="0" speed="13.90" length="2.28" width="4.00" shape="51.83,100.30 52.80,98.23"/>
    </edge>
    <edge id=":1449169976_1" function="internal">
        <lane id=":1449169976_1_0" index="0" speed="13.90" length="4.24" width="4.00" shape="47.98,100.79 48.65,99.15 49.68,98.18 50.72,97.95"/>
    </edge>
    <edge id=":1449169976_2" function="internal">
        <lane id=":1449169976_2_0" index="0" speed="13.90" length="2.12" width="4.00" shape="50.72,97.95 51.06,97.88 52.80,98.23"/>
    </edge>
    <edge id=":1449170293_0" function="internal">
        <lane id=":1449170293_0_0" index="0" speed="13.90" length="8.00" width="4.00" shape="189.27,241.65 186.64,249.21"/>
    </edge>
    <edge id=":1449170293_1" function="internal">
        <lane id=":1449170293_1_0" index="0" speed="13.90" length="6.52" width="4.00" shape="184.14,244.08 185.73,244.89 186.68,246.01 186.98,247.45 186.64,249.21"/>
    </edge>
    <edge id=":1449170365_0" function="internal">
        <lane id=":1449170365_0_0" index="0" speed="13.90" length="7.99" width="4.00" shape="24.76,189.67 25.57,187.44 26.09,185.90 26.53,184.34 27.12,182.04"/>
    </edge>
    <edge id=":1449170365_1" function="internal">
        <lane id=":1449170365_1_0" index="0" speed="13.90" length="6.48" width="4.00" shape="24.76,189.67 25.61,188.09 26.75,187.18 28.18,186.94 29.91,187.35"/>
    </edge>
    <edge id=":1449170520_0" function="internal">
        <lane id=":1449170520_0_0" index="0" speed="13.90" length="6.49" width="4.00" shape="122.60,123.39 124.32,123.75 125.78,123.49 126.98,122.61 127.90,121.12"/>
    </edge>
    <edge id=":1449170520_1" function="internal">
        <lane id=":1449170520_1_0" index="0" speed="13.90" length="7.99" width="4.00" shape="122.60,123.39 124.83,124.19 126.37,124.71 127.93,125.16 130.22,125.75"/>
    </edge>
    <edge id=":1449170520_2" function="internal">
        <lane id=":1449170520_2_0" index="0" speed="13.90" length="8.00" width="4.00" shape="125.32,128.66 125.91,126.37 126.37,124.81 126.96,123.29 127.90,121.12"/>
    </edge>
    <edge id=":1449170520_3" function="internal">
        <lane id=":1449170520_3_0" index="0" speed="13.90" length="2.15" width="4.00" shape="125.32,128.66 125.99,127.01 126.25,126.75"/>
    </edge>
    <edge id=":1449170520_4" function="internal">
        <lane id=":1449170520_4_0" index="0" speed="13.90" length="4.36" width="4.00" shape="126.25,126.75 127.03,125.98 128.44,125.56 130.22,125.75"/>
    </edge>
    <edge id=":1449170571_0" function="internal">
        <lane id=":1449170571_0_0" index="0" speed="13.90" length="6.13" width="4.00" shape="99.73,215.14 101.39,215.53 102.72,215.27 103.70,214.35 104.35,212.76"/>
    </edge>
    <edge id=":1449170571_1" function="internal">
        <lane id=":1449170571_1_0" index="0" speed="13.90" length="8.00" width="4.00" shape="99.73,215.14 107.23,217.90"/>
    </edge>
    <edge id=":1866096686_0" function="internal">
        <lane id=":1866096686_0_0" index="0" speed="13.90" length="0.36" width="4.00" shape="225.26,150.28 225.14,150.62"/>
    </edge>
    <edge id=":1866096686_1" function="internal">
        <lane id=":1866096686_1_0" index="0" speed="13.90" length="6.62" width="4.00" shape="225.26,150.28 223.49,150.08 222.04,150.49 220.90,151.50 220.08,153.11"/>
    </edge>
    <edge id=":667003250_0" function="internal">
        <lane id=":667003250_0_0" index="0" speed="13.90" length="7.99" width="4.00" shape="159.90,337.98 152.64,334.63"/>
    </edge>
    <edge id=":667003250_1" function="internal">
        <lane id=":667003250_1_0" index="0" speed="13.90" length="2.14" width="4.00" shape="157.68,332.44 156.87,334.01 156.58,334.24"/>
    </edge>
    <edge id=":667003250_2" function="internal">
        <lane id=":667003250_2_0" index="0" speed="13.90" length="4.25" width="4.00" shape="156.58,334.24 155.76,334.90 154.35,335.10 152.64,334.63"/>
    </edge>

    <edge id="-101867" from="1449170365" to="1449169976" priority="-1" shape="29.11,182.55 49.96,101.30">
        <lane id="-101867_0" index="0" speed="13.90" length="83.89" width="4.00" shape="27.12,182.04 47.98,100.79"/>
    </edge>
    <edge id="131701383" from="1449170571" to="1449170520" priority="-1" shape="106.34,213.26 127.31,129.16">
        <lane id="131701383_0" index="0" speed="13.90" length="86.67" width="4.00" shape="104.35,212.76 125.32,128.66"/>
    </edge>
    <edge id="664323229" from="1449169976" to="1449170520" priority="-1" shape="52.10,100.16 121.90,125.32">
        <lane id="664323229_0" index="0" speed="13.90" length="74.20" width="4.00" shape="52.80,98.23 122.60,123.39"/>
    </edge>
    <edge id="664323230" from="1449170520" to="1449169976" priority="-1" shape="129.78,121.94 168.86,32.94 168.94,32.74 168.99,32.52 169.02,32.30 169.20,30.04 169.21,29.85 169.20,29.66 169.17,29.47 169.12,29.29 169.06,29.11 168.98,28.94 168.88,28.77 168.77,28.62 168.64,28.48 168.51,28.35 168.36,28.23 166.49,26.93 166.30,26.82 166.10,26.72 165.89,26.65 72.04,0.07 71.83,0.03 71.62,0.00 71.41,0.00 69.04,0.11 68.83,0.13 68.63,0.17 68.43,0.23 68.25,0.31 68.07,0.41 67.90,0.53 67.74,0.66 67.60,0.81 67.48,0.98 66.14,2.94 66.03,3.12 65.94,3.31 65.87,3.52 41.38,89.28 41.33,89.47 41.31,89.66 41.30,89.85 41.31,90.04 41.34,90.23 41.39,90.42 41.45,90.60 41.53,90.77 41.63,90.93 41.74,91.09 44.95,95.07">
        <lane id="664323230_0" index="0" speed="13.90" length="306.52" width="4.00" shape="127.90,121.12 166.98,32.12 167.16,29.88 165.33,28.62 71.48,2.04 69.14,2.16 67.84,4.09 43.35,89.84 51.83,100.30"/>
    </edge>
    <edge id="664323231_1" from="1449170520" to="1866096686" priority="-1" shape="129.71,127.74 216.98,150.26">
        <lane id="664323231_1_0" index="0" speed="13.90" length="98.15" width="4.00" shape="130.22,125.75 225.26,150.28"/>
    </edge>
    <edge id="664323231_2" from="1866096686" to="667003250" priority="-1" shape="224.45,152.55 303.38,180.63 311.13,183.39 311.87,183.97 311.80,184.91 233.66,369.89 233.03,370.60 232.08,370.48 160.79,336.13">
        <lane id="664323231_2_0" index="0" speed="13.90" length="382.77" width="4.00" shape="225.14,150.62 304.07,178.70 312.13,181.57 314.00,183.03 313.82,185.40 235.42,371.00 233.85,372.77 231.49,372.47 159.90,337.98"/>
    </edge>
    <edge id="665049813" from="1866096686" to="1449170293" priority="-1" shape="218.14,152.44 187.33,240.98">
        <lane id="665049813_0" index="0" speed="13.90" length="93.75" width="4.00" shape="220.08,153.11 189.27,241.65"/>
    </edge>
    <edge id="665049814_1" from="1449170293" to="667003250" priority="-1" shape="184.70,248.54 155.75,331.76">
        <lane id="665049814_1_0" index="0" speed="13.90" length="88.12" width="4.00" shape="186.64,249.21 157.68,332.44"/>
    </edge>
    <edge id="665049814_2" from="1449170365" to="1449170571" priority="-1" shape="29.16,189.26 98.97,217.04">
        <lane id="665049814_2_0" index="0" speed="13.90" length="75.14" width="4.00" shape="29.91,187.35 99.73,215.14"/>
    </edge>
    <edge id="665049814_3" from="667003250" to="1449170365" priority="-1" shape="153.47,332.75 0.87,265.35 0.00,264.57 0.04,263.41 26.69,190.37">
        <lane id="665049814_3_0" index="0" speed="13.90" length="250.12" width="4.00" shape="152.64,334.63 -0.26,267.09 -2.08,265.46 -2.00,263.01 24.76,189.67"/>
    </edge>
    <edge id="665796007" from="1449170571" to="1449170293" priority="-1" shape="106.57,219.84 183.48,246.02">
        <lane id="665796007_0" index="0" speed="13.90" length="81.24" width="4.00" shape="107.23,217.90 184.14,244.08"/>
    </edge>

    <tlLogic id="1449170293" type="static" programID="0" offset="0">
        <phase duration="41" state="Gr"/>
        <phase duration="4" state="yr"/>
        <phase duration="41" state="rG"/>
        <phase duration="4" state="ry"/>
    </tlLogic>
    <tlLogic id="1449170571" type="static" programID="0" offset="0">
        <phase duration="86" state="GG"/>
        <phase duration="4" state="yy"/>
    </tlLogic>

    <junction id="1449169976" type="priority" x="49.02" y="96.93" incLanes="664323230_0 -101867_0" intLanes=":1449169976_0_0 :1449169976_2_0" shape="48.06,92.56 53.46,96.40 52.10,100.16 49.96,101.30 46.09,100.30 44.95,95.07" customShape="1">
        <request index="0" response="00" foes="10" cont="0"/>
        <request index="1" response="01" foes="01" cont="1"/>
    </junction>
    <junction id="1449170293" type="traffic_light" x="187.91" y="245.42" incLanes="665049813_0 665796007_0" intLanes=":1449170293_0_0 :1449170293_1_0" shape="187.33,240.98 191.11,242.29 188.48,249.85 184.70,248.54 183.48,246.02 184.77,242.23" customShape="1">
        <request index="0" response="00" foes="10" cont="0"/>
        <request index="1" response="01" foes="01" cont="0"/>
    </junction>
    <junction id="1449170365" type="priority" x="26.18" y="185.92" incLanes="665049814_3_0" intLanes=":1449170365_0_0 :1449170365_1_0" shape="25.24,181.55 29.11,182.55 30.63,185.54 29.16,189.26 26.69,190.37 22.93,189.00" customShape="1">
        <request index="0" response="00" foes="00" cont="0"/>
        <request index="1" response="00" foes="00" cont="0"/>
    </junction>
    <junction id="1449170520" type="priority" x="126.34" y="124.80" incLanes="664323229_0 131701383_0" intLanes=":1449170520_0_0 :1449170520_1_0 :1449170520_2_0 :1449170520_4_0" shape="126.12,120.33 129.78,121.94 130.71,123.86 129.71,127.74 127.31,129.16 123.43,128.20 121.90,125.32 123.25,121.56" customShape="1">
        <request index="0" response="0000" foes="0100" cont="0"/>
        <request index="1" response="0000" foes="1100" cont="0"/>
        <request index="2" response="0011" foes="0011" cont="0"/>
        <request index="3" response="0010" foes="0010" cont="1"/>
    </junction>
    <junction id="1449170571" type="traffic_light" x="103.43" y="216.66" incLanes="665049814_2_0" intLanes=":1449170571_0_0 :1449170571_1_0" shape="102.46,212.29 106.34,213.26 107.86,216.05 106.57,219.84 102.78,218.55 102.69,218.51 98.97,217.04 100.45,213.32" customShape="1">
        <request index="0" response="00" foes="00" cont="0"/>
        <request index="1" response="00" foes="00" cont="0"/>
    </junction>
    <junction id="1866096686" type="priority" x="221.35" y="149.32" incLanes="664323231_1_0" intLanes=":1866096686_0_0 :1866096686_1_0" shape="217.97,146.39 221.85,147.39 222.02,147.44 225.79,148.78 224.45,152.55 221.92,153.76 218.14,152.44 216.98,150.26" customShape="1">
        <request index="0" response="00" foes="00" cont="0"/>
        <request index="1" response="00" foes="00" cont="0"/>
    </junction>
    <junction id="667003250" type="priority" x="156.32" y="336.20" incLanes="664323231_2_0 665049814_1_0" intLanes=":667003250_0_0 :667003250_2_0" shape="155.75,331.76 159.52,333.08 160.79,336.13 159.06,339.74 151.85,336.41 153.47,332.75" customShape="1">
        <request index="0" response="00" foes="10" cont="0"/>
        <request index="1" response="01" foes="01" cont="1"/>
    </junction>

    <junction id=":1449169976_2_0" type="internal" x="50.72" y="97.95" incLanes=":1449169976_1_0 664323230_0" intLanes=":1449169976_0_0"/>
    <junction id=":1449170520_4_0" type="internal" x="126.25" y="126.75" incLanes=":1449170520_3_0 664323229_0" intLanes=":1449170520_1_0"/>
    <junction id=":667003250_2_0" type="internal" x="156.58" y="334.24" incLanes=":667003250_1_0 664323231_2_0" intLanes=":667003250_0_0"/>

    <connection from="-101867" to="664323229" fromLane="0" toLane="0" via=":1449169976_1_0" dir="l" state="m"/>
    <connection from="131701383" to="664323230" fromLane="0" toLane="0" via=":1449170520_2_0" dir="s" state="m"/>
    <connection from="131701383" to="664323231_1" fromLane="0" toLane="0" via=":1449170520_3_0" dir="l" state="m"/>
    <connection from="664323229" to="664323230" fromLane="0" toLane="0" via=":1449170520_0_0" dir="r" state="M"/>
    <connection from="664323229" to="664323231_1" fromLane="0" toLane="0" via=":1449170520_1_0" dir="s" state="M"/>
    <connection from="664323230" to="664323229" fromLane="0" toLane="0" via=":1449169976_0_0" dir="s" state="M"/>
    <connection from="664323231_1" to="664323231_2" fromLane="0" toLane="0" via=":1866096686_0_0" dir="s" state="M"/>
    <connection from="664323231_1" to="665049813" fromLane="0" toLane="0" via=":1866096686_1_0" dir="l" state="M"/>
    <connection from="664323231_2" to="665049814_3" fromLane="0" toLane="0" via=":667003250_0_0" dir="s" state="M"/>
    <connection from="665049813" to="665049814_1" fromLane="0" toLane="0" via=":1449170293_0_0" tl="1449170293" linkIndex="0" dir="s" state="o"/>
    <connection from="665049814_1" to="665049814_3" fromLane="0" toLane="0" via=":667003250_1_0" dir="l" state="m"/>
    <connection from="665049814_2" to="131701383" fromLane="0" toLane="0" via=":1449170571_0_0" tl="1449170571" linkIndex="0" dir="r" state="o"/>
    <connection from="665049814_2" to="665796007" fromLane="0" toLane="0" via=":1449170571_1_0" tl="1449170571" linkIndex="1" dir="s" state="o"/>
    <connection from="665049814_3" to="-101867" fromLane="0" toLane="0" via=":1449170365_0_0" dir="s" state="M"/>
    <connection from="665049814_3" to="665049814_2" fromLane="0" toLane="0" via=":1449170365_1_0" dir="l" state="M"/>
    <connection from="665796007" to="665049814_1" fromLane="0" toLane="0" via=":1449170293_1_0" tl="1449170293" linkIndex="1" dir="l" state="o"/>

    <connection from=":1449169976_0" to="664323229" fromLane="0" toLane="0" dir="s" state="M"/>
    <connection from=":1449169976_1" to="664323229" fromLane="0" toLane="0" via=":1449169976_2_0" dir="s" state="m"/>
    <connection from=":1449169976_2" to="664323229" fromLane="0" toLane="0" dir="s" state="M"/>
    <connection from=":1449170293_0" to="665049814_1" fromLane="0" toLane="0" dir="s" state="M"/>
    <connection from=":1449170293_1" to="665049814_1" fromLane="0" toLane="0" dir="s" state="M"/>
    <connection from=":1449170365_0" to="-101867" fromLane="0" toLane="0" dir="s" state="M"/>
    <connection from=":1449170365_1" to="665049814_2" fromLane="0" toLane="0" dir="s" state="M"/>
    <connection from=":1449170520_0" to="664323230" fromLane="0" toLane="0" dir="s" state="M"/>
    <connection from=":1449170520_1" to="664323231_1" fromLane="0" toLane="0" dir="s" state="M"/>
    <connection from=":1449170520_2" to="664323230" fromLane="0" toLane="0" dir="s" state="M"/>
    <connection from=":1449170520_3" to="664323231_1" fromLane="0" toLane="0" via=":1449170520_4_0" dir="s" state="m"/>
    <connection from=":1449170520_4" to="664323231_1" fromLane="0" toLane="0" dir="s" state="M"/>
    <connection from=":1449170571_0" to="131701383" fromLane="0" toLane="0" dir="s" state="M"/>
    <connection from=":1449170571_1" to="665796007" fromLane="0" toLane="0" dir="s" state="M"/>
    <connection from=":1866096686_0" to="664323231_2" fromLane="0" toLane="0" dir="s" state="M"/>
    <connection from=":1866096686_1" to="665049813" fromLane="0" toLane="0" dir="s" state="M"/>
    <connection from=":667003250_0" to="665049814_3" fromLane="0" toLane="0" dir="s" state="M"/>
    <connection from=":667003250_1" to="665049814_3" fromLane="0" toLane="0" via=":667003250_2_0" dir="s" state="m"/>
    <connection from=":667003250_2" to="665049814_3" fromLane="0" toLane="0" dir="s" state="M"/>

</net>
