<?xml version='1.0' encoding='UTF-8'?>
<edges>
  <edge id="-101867" from="1449170365" to="1449169976" numLanes="1" width="4.0" shape="-138.200272,1.731756 -117.350905,-79.518807 "/>
  <edge id="131701383" from="1449170571" to="1449170520" numLanes="1" width="4.0" shape="-60.973382,32.442672 -39.998477,-51.651441 "/>
  <edge id="664323229" from="1449169976" to="1449170520" numLanes="1" width="4.0" shape="-115.209211,-80.652407 -45.412209,-55.491567 "/>
  <edge id="664323230" from="1449170520" to="1449169976" numLanes="1" width="4.0" shape="-37.531513,-58.874868 1.549162,-147.872196 1.626992,-148.080071 1.681308,-148.295291 1.711439,-148.515204 1.894463,-150.779684 1.900765,-150.969028 1.889123,-151.158119 1.859641,-151.345260 1.812585,-151.528772 1.748377,-151.707008 1.667592,-151.878370 1.570956,-152.041318 1.459335,-152.194393 1.333732,-152.336219 1.195272,-152.465524 1.045199,-152.581149 -0.818120,-153.880923 -1.006938,-153.997617 -1.207524,-154.092668 -1.417408,-154.164907 -95.266556,-180.741903 -95.475532,-180.789155 -95.688365,-180.813782 -95.902610,-180.815500 -98.273403,-180.707390 -98.478025,-180.687481 -98.679522,-180.646672 -98.875765,-180.585392 -99.064681,-180.504291 -99.244273,-180.404224 -99.412643,-180.286250 -99.568013,-180.151614 -99.708740,-180.001739 -99.833338,-179.838209 -101.172737,-177.879036 -101.284007,-177.695944 -101.375054,-177.501999 -101.444831,-177.299427 -125.935306,-91.530805 -125.978969,-91.344577 -126.004643,-91.155030 -126.012091,-90.963897 -126.001247,-90.772926 -125.972208,-90.583865 -125.925242,-90.398442 -125.860777,-90.218354 -125.779403,-90.045248 -125.681865,-89.880708 -125.569054,-89.726237 -122.361680,-85.748720 "/>
  <edge id="665049813" from="1866096686" to="1449170293" numLanes="1" width="4.0" shape="50.833961,-28.373203 20.022916,60.164544 "/>
  <edge id="665796007" from="1449170571" to="1449170293" numLanes="1" width="4.0" shape="-60.739925,39.022145 16.166009,65.203857 "/>
  <edge id="665049814_2" from="1449170365" to="1449170571" numLanes="1" width="4.0" shape="-138.154283,8.446016 -68.337940,36.219568 "/>
  <edge id="664323231_1" from="1449170520" to="1866096686" numLanes="1" width="4.0" shape="-37.597774,-53.080335 49.664611,-30.556809 "/>
  <edge id="664323231_2" from="1866096686" to="667003250" numLanes="1" width="4.0" shape="57.135661,-28.268517 136.068281,-0.184385 143.818844,2.574655 144.556833,3.158252 144.488620,4.096634 66.353910,189.070717 65.718927,189.785908 64.769711,189.668903 -6.517721,155.317965 "/>
  <edge id="665049814_1" from="1449170293" to="667003250" numLanes="1" width="4.0" shape="17.393772,67.720306 -11.563873,150.948231 "/>
  <edge id="665049814_3" from="667003250" to="1449170365" numLanes="1" width="4.0" shape="-13.840297,151.937697 -166.442681,84.535144 -167.310410,83.757742 -167.269439,82.593429 -140.623690,9.552309 "/>
</edges>
