<?xml version='1.0' encoding='UTF-8'?>
<nodes>
  <node id="1449169976" x="-115.873754" y="-91.438074" shape="-119.678119,-93.788990 -115.694260,-93.430003 -115.213365,-93.325900 -111.437713,-92.005122 -112.758491,-88.229470 -115.321110,-87.000216 -119.092454,-88.333244 -120.037106,-89.805132 -119.678119,-93.788990 -119.678119,-93.788990"/>
  <node id="1449170293" x="20.597143" y="64.599662" shape="20.022916,60.164545 23.800700,61.479210 21.171636,69.034745 17.393773,67.720306 16.152887,65.098249 17.531720,61.343410 20.022916,60.164545 20.022916,60.164545"/>
  <node id="1449170365" x="-149.1448" y="2.690923" shape="-149.697444,-1.746935 -145.926100,-0.413907 -63.851158,31.458435 -65.213409,35.219322 -152.076755,6.067851 -151.081962,2.193527 -151.030472,2.024409 -149.697444,-1.746935 -149.697444,-1.746935"/>
  <node id="1449170520" x="-31.037676" y="-61.761184" shape="-31.578464,-66.200502 -27.810694,-64.857405 -26.598692,-62.304714 -27.939462,-58.536115 -30.480066,-57.323947 -34.252899,-58.652754 -35.473717,-61.194136 -34.152939,-64.969788 -31.578464,-66.200502 -31.578464,-66.200502"/>
  <node id="1449170571" x="-64.532284" y="33.338879" shape="-148.463675,0.810480 -65.089894,28.901642 -61.317061,30.230449 -60.088028,32.840292 -61.466861,36.595131 -149.825926,4.571367 -148.463675,0.810480 -148.463675,0.810480"/>
  <node id="1866096686" x="54.037518" y="-31.493654" shape="50.939304,-34.718723 54.707903,-33.377954 58.476514,-32.037086 57.135661,-28.268517 54.611745,-27.058537 50.833961,-28.373202 49.598534,-30.950124 50.939304,-34.718723 50.939304,-34.718723"/>
  <node id="667003250" x="-10.98938" y="155.383313" shape="-11.563873,150.948230 -7.786010,152.262669 -6.517722,155.317965 -8.254107,158.921431 -15.456423,155.596678 -13.840298,151.937697 -11.563873,150.948230 -11.563873,150.948230"/>
</nodes>
