<?xml version='1.0' encoding='UTF-8'?>
<edges>
  <edge id="131701383" from="1449170571" to="1449170520" numLanes="1" width="4.0" shape="-61.317060,30.230448 -30.480065,-57.323948 "/>
  <edge id="664323229" from="1449169976" to="1449170520" numLanes="1" width="4.0" shape="-112.758492,-88.229470 -35.473717,-61.194136 "/>
  <edge id="664323230" from="1449170520" to="1449169976" numLanes="1" width="4.0" shape="-27.810693,-64.857405 1.800697,-147.925783 1.862702,-148.135259 1.901491,-148.350247 1.916600,-148.568184 1.950470,-150.891910 1.943700,-151.088025 1.917745,-151.282533 1.872853,-151.473562 1.809456,-151.659271 1.728166,-151.837874 1.629764,-152.007651 1.515198,-152.166968 1.385570,-152.314290 1.242130,-152.448200 1.086256,-152.567409 -0.826781,-153.886931 -1.013117,-154.000963 -1.210779,-154.093991 -1.417408,-154.164907 -95.266556,-180.741903 -95.474832,-180.789035 -95.686946,-180.813694 -95.900480,-180.815596 -98.278818,-180.709683 -98.481626,-180.690264 -98.681407,-180.650313 -98.876087,-180.590244 -99.063645,-180.510681 -99.242136,-180.412450 -99.409707,-180.296569 -99.564620,-180.164241 -99.705266,-180.016840 -99.830186,-179.855895 -101.192220,-177.903314 -101.304867,-177.721900 -101.397530,-177.529510 -101.469151,-177.328337 -125.712978,-95.674037 -125.764647,-95.455862 -125.791570,-95.233275 -125.793411,-95.009073 -125.686849,-92.784827 -125.667405,-92.586485 -125.628319,-92.391062 -125.569978,-92.200500 -125.492961,-92.016690 -125.398033,-91.841458 -125.286137,-91.676543 -125.158384,-91.523583 -125.016042,-91.384096 -124.860524,-91.259469 -124.693376,-91.150938 -124.516256,-91.059580 -122.488807,-90.138671 -122.279792,-90.057536 -122.063010,-90.000305 -121.841184,-89.967698 -120.037105,-89.805132 "/>
  <edge id="665049813" from="1866096686" to="1449170293" numLanes="1" width="4.0" shape="50.833961,-28.373203 20.022916,60.164544 "/>
  <edge id="665796007" from="1449170571" to="1449170293" numLanes="1" width="4.0" shape="-61.466860,36.595131 16.152887,65.098249 "/>
  <edge id="131701325_1" from="1449169976" to="1449170365" numLanes="1" width="4.0" shape="-119.092454,-88.333244 -149.697444,-1.746935 "/>
  <edge id="664323231_1" from="1449170520" to="1866096686" numLanes="1" width="4.0" shape="-27.939462,-58.536115 49.598534,-30.950123 "/>
  <edge id="664323231_2" from="1866096686" to="667003250" numLanes="1" width="4.0" shape="57.135661,-28.268517 136.068281,-0.184385 143.818844,2.574655 144.556833,3.158252 144.488620,4.096634 66.353910,189.070717 65.718927,189.785908 64.769711,189.668903 -6.517721,155.317965 "/>
  <edge id="665049814_1" from="1449170293" to="667003250" numLanes="1" width="4.0" shape="17.393772,67.720306 -11.563873,150.948231 "/>
  <edge id="665049814_3" from="667003250" to="1449170365" numLanes="1" width="4.0" shape="-13.840297,151.937697 -166.454280,84.530021 -167.458325,83.652657 -167.526179,82.321015 -148.238532,7.203246 "/>
</edges>
